2024_89_CemigReconfigurationCases/1_AlimsCemig/RBST335/RBST335CargaBT_Dez.dss
new load.3001936256M1 bus1=RML1054548769.1.3.0,Phases=2,kv=0.22,kW=0.35266,pf=0.92,Vminpu=0.92,Vmaxpu=1.5,model=8,zipv=[0.5,0,0.5,1,0,0,0],daily=RES2_18,status=variable
new load.3001936257M1 bus1=RML1054548762.2.3.0,Phases=2,kv=0.22,kW=1.3352,pf=0.92,Vminpu=0.92,Vmaxpu=1.5,model=8,zipv=[0.5,0,0.5,1,0,0,0],daily=RES4_18,status=variable
new load.3001936258M1 bus1=RML1054548755.2.0,Phases=1,kv=0.127,kW=1.25104,pf=0.92,Vminpu=0.92,Vmaxpu=1.5,model=8,zipv=[0.5,0,0.5,1,0,0,0],daily=RES4_18,status=variable
new load.3001936259M1 bus1=RML1054548748.1.2.0,Phases=2,kv=0.22,kW=0.28212,pf=0.92,Vminpu=0.92,Vmaxpu=1.5,model=8,zipv=[0.5,0,0.5,1,0,0,0],daily=RES2_18,status=variable
new load.3001936264M1 bus1=RML1054548818.1.2.3.0,Phases=3,kv=0.22,kW=0.6583,pf=0.92,Vminpu=0.92,Vmaxpu=1.5,model=8,zipv=[0.5,0,0.5,1,0,0,0],daily=RES2_18,status=variable
new load.3001936265M1 bus1=RML1054548727.2.3.0,Phases=2,kv=0.22,kW=0.29624,pf=0.92,Vminpu=0.92,Vmaxpu=1.5,model=8,zipv=[0.5,0,0.5,1,0,0,0],daily=RES2_18,status=variable
new load.3001936266M1 bus1=RML1054548832.2.3.0,Phases=2,kv=0.22,kW=0.98756,pf=0.92,Vminpu=0.92,Vmaxpu=1.5,model=8,zipv=[0.5,0,0.5,1,0,0,0],daily=RES3_15,status=variable
new load.3001936267M1 bus1=RML1054548832.2.3.0,Phases=2,kv=0.22,kW=1.5961,pf=0.92,Vminpu=0.92,Vmaxpu=1.5,model=8,zipv=[0.5,0,0.5,1,0,0,0],daily=RES5_16,status=variable
new load.3001936268M1 bus1=RML1054548734.1.2.3.0,Phases=3,kv=0.22,kW=0.4608,pf=0.92,Vminpu=0.92,Vmaxpu=1.5,model=8,zipv=[0.5,0,0.5,1,0,0,0],daily=RES2_18,status=variable
new load.3001936269M1 bus1=RML1054548839.1.2.3.0,Phases=3,kv=0.22,kW=2.0526,pf=0.92,Vminpu=0.92,Vmaxpu=1.5,model=8,zipv=[0.5,0,0.5,1,0,0,0],daily=COM1_21,status=variable
new load.3001936270M1 bus1=RML1054548825.1.2.3.0,Phases=3,kv=0.22,kW=0.262,pf=0.92,Vminpu=0.92,Vmaxpu=1.5,model=8,zipv=[0.5,0,0.5,1,0,0,0],daily=RES1_17,status=variable
new load.3001936271M1 bus1=RML1054548825.1.2.3.0,Phases=3,kv=0.22,kW=0.55956,pf=0.92,Vminpu=0.92,Vmaxpu=1.5,model=8,zipv=[0.5,0,0.5,1,0,0,0],daily=RES2_18,status=variable
new load.3001936272M1 bus1=RML1054583076.2.0,Phases=1,kv=0.127,kW=0.20034,pf=0.92,Vminpu=0.92,Vmaxpu=1.5,model=8,zipv=[0.5,0,0.5,1,0,0,0],daily=RES1_17,status=variable
new load.3001936279M1 bus1=RML1054591651.1.2.0,Phases=2,kv=0.22,kW=0.86048,pf=0.92,Vminpu=0.92,Vmaxpu=1.5,model=8,zipv=[0.5,0,0.5,1,0,0,0],daily=RES2_18,status=variable
new load.3001936280M1 bus1=RML1054591658.1.3.0,Phases=2,kv=0.22,kW=2.44174,pf=0.92,Vminpu=0.92,Vmaxpu=1.5,model=8,zipv=[0.5,0,0.5,1,0,0,0],daily=COM1_21,status=variable
new load.3001936281M1 bus1=RML1054591637.1.2.3.0,Phases=3,kv=0.22,kW=0.41848,pf=0.92,Vminpu=0.92,Vmaxpu=1.5,model=8,zipv=[0.5,0,0.5,1,0,0,0],daily=RES2_18,status=variable
new load.3001936282M1 bus1=RML1054591637.1.2.3.0,Phases=3,kv=0.22,kW=0.4232,pf=0.92,Vminpu=0.92,Vmaxpu=1.5,model=8,zipv=[0.5,0,0.5,1,0,0,0],daily=RES2_18,status=variable
new load.3001936283M1 bus1=RML1054591637.1.2.3.0,Phases=3,kv=0.22,kW=0.57836,pf=0.92,Vminpu=0.92,Vmaxpu=1.5,model=8,zipv=[0.5,0,0.5,1,0,0,0],daily=RES2_18,status=variable
new load.3002119486M1 bus1=RML1054569594.1.2.0,Phases=2,kv=0.22,kW=0.35866,pf=0.92,Vminpu=0.92,Vmaxpu=1.5,model=8,zipv=[0.5,0,0.5,1,0,0,0],daily=RES2_26,status=variable
new load.3002119488M1 bus1=RML1054493483.2.3.0,Phases=2,kv=0.22,kW=0.649,pf=0.92,Vminpu=0.92,Vmaxpu=1.5,model=8,zipv=[0.5,0,0.5,1,0,0,0],daily=RES2_26,status=variable
new load.3002119489M1 bus1=RML1054569713.1.2.3.0,Phases=3,kv=0.22,kW=0.11272,pf=0.92,Vminpu=0.92,Vmaxpu=1.5,model=8,zipv=[0.5,0,0.5,1,0,0,0],daily=RES3_19,status=variable
new load.3002119492M1 bus1=RML1054493455.1.2.3.0,Phases=3,kv=0.22,kW=0.92104,pf=0.92,Vminpu=0.92,Vmaxpu=1.5,model=8,zipv=[0.5,0,0.5,1,0,0,0],daily=RES3_19,status=variable
new load.3002119493M1 bus1=RML1054493441.1.3.0,Phases=2,kv=0.22,kW=0.35998,pf=0.92,Vminpu=0.92,Vmaxpu=1.5,model=8,zipv=[0.5,0,0.5,1,0,0,0],daily=RES1_23,status=variable
new load.3002119494M1 bus1=RML1054493378.1.3.0,Phases=2,kv=0.22,kW=0.41784,pf=0.92,Vminpu=0.92,Vmaxpu=1.5,model=8,zipv=[0.5,0,0.5,1,0,0,0],daily=RES1_23,status=variable
new load.3002119495M1 bus1=RML1054493385.1.2.3.0,Phases=3,kv=0.22,kW=0.3145,pf=0.92,Vminpu=0.92,Vmaxpu=1.5,model=8,zipv=[0.5,0,0.5,1,0,0,0],daily=RES5_19,status=variable
new load.3002119496M1 bus1=RML1054493497.1.2.3.0,Phases=3,kv=0.22,kW=0.61832,pf=0.92,Vminpu=0.92,Vmaxpu=1.5,model=8,zipv=[0.5,0,0.5,1,0,0,0],daily=RES3_19,status=variable
new load.3002119497M1 bus1=RML1056622372.1.2.0,Phases=2,kv=0.22,kW=0.50784,pf=0.92,Vminpu=0.92,Vmaxpu=1.5,model=8,zipv=[0.5,0,0.5,1,0,0,0],daily=RES1_23,status=variable
new load.3002119498M1 bus1=RML1054493420.1.2.0,Phases=2,kv=0.22,kW=0.75036,pf=0.92,Vminpu=0.92,Vmaxpu=1.5,model=8,zipv=[0.5,0,0.5,1,0,0,0],daily=RES3_19,status=variable
new load.3002119499M1 bus1=RML1054569650.1.0,Phases=1,kv=0.127,kW=0.39708,pf=0.92,Vminpu=0.92,Vmaxpu=1.5,model=8,zipv=[0.5,0,0.5,1,0,0,0],daily=RES2_26,status=variable
new load.3002119500M1 bus1=RML1054569601.1.2.0,Phases=2,kv=0.22,kW=0.64614,pf=0.92,Vminpu=0.92,Vmaxpu=1.5,model=8,zipv=[0.5,0,0.5,1,0,0,0],daily=RES4_19,status=variable
new load.3002119513M1 bus1=RML1054493182.2.3.0,Phases=2,kv=0.22,kW=0.63764,pf=0.92,Vminpu=0.92,Vmaxpu=1.5,model=8,zipv=[0.5,0,0.5,1,0,0,0],daily=RES3_19,status=variable
new load.3002119548M1 bus1=RML1054548531.2.3.0,Phases=2,kv=0.22,kW=1.0331,pf=0.92,Vminpu=0.92,Vmaxpu=1.5,model=8,zipv=[0.5,0,0.5,1,0,0,0],daily=RES4_19,status=variable
new load.3002119549M1 bus1=RML1054548538.1.2.0,Phases=2,kv=0.22,kW=0.23158,pf=0.92,Vminpu=0.92,Vmaxpu=1.5,model=8,zipv=[0.5,0,0.5,1,0,0,0],daily=RES2_27,status=variable
new load.3002119550M1 bus1=RML1054548545.1.2.3.0,Phases=3,kv=0.22,kW=0.39632,pf=0.92,Vminpu=0.92,Vmaxpu=1.5,model=8,zipv=[0.5,0,0.5,1,0,0,0],daily=RES2_27,status=variable
new load.3002119551M1 bus1=RML1054548433.3.0,Phases=1,kv=0.127,kW=0.34858,pf=0.92,Vminpu=0.92,Vmaxpu=1.5,model=8,zipv=[0.5,0,0.5,1,0,0,0],daily=RES2_27,status=variable
new load.3002119552M1 bus1=RML1054548454.1.0,Phases=1,kv=0.127,kW=0.33664,pf=0.92,Vminpu=0.92,Vmaxpu=1.5,model=8,zipv=[0.5,0,0.5,1,0,0,0],daily=RES2_27,status=variable
new load.3002119670M1 bus1=RML1053801722.1.2.0,Phases=2,kv=0.22,kW=0.10028,pf=0.92,Vminpu=0.92,Vmaxpu=1.5,model=8,zipv=[0.5,0,0.5,1,0,0,0],daily=RES2_27,status=variable
new load.3002120012M1 bus1=RML1054591553.1.2.3.0,Phases=3,kv=0.22,kW=0.22442,pf=0.92,Vminpu=0.92,Vmaxpu=1.5,model=8,zipv=[0.5,0,0.5,1,0,0,0],daily=RES2_27,status=variable
new load.3002120013M1 bus1=RML1054591357.1.2.0,Phases=2,kv=0.22,kW=0.2292,pf=0.92,Vminpu=0.92,Vmaxpu=1.5,model=8,zipv=[0.5,0,0.5,1,0,0,0],daily=RES2_27,status=variable
new load.3002120015M1 bus1=RML1054488800.1.2.0,Phases=2,kv=0.22,kW=0.18622,pf=0.92,Vminpu=0.92,Vmaxpu=1.5,model=8,zipv=[0.5,0,0.5,1,0,0,0],daily=RES2_27,status=variable
new load.3002120016M1 bus1=RML1054488807.1.0,Phases=1,kv=0.127,kW=0.20532,pf=0.92,Vminpu=0.92,Vmaxpu=1.5,model=8,zipv=[0.5,0,0.5,1,0,0,0],daily=RES2_27,status=variable
new load.3002120018M1 bus1=RML1054531927.2.0,Phases=1,kv=0.127,kW=0.57968,pf=0.92,Vminpu=0.92,Vmaxpu=1.5,model=8,zipv=[0.5,0,0.5,1,0,0,0],daily=RES3_19,status=variable
new load.3002120023M1 bus1=RML1054531948.2.3.0,Phases=2,kv=0.22,kW=0.4011,pf=0.92,Vminpu=0.92,Vmaxpu=1.5,model=8,zipv=[0.5,0,0.5,1,0,0,0],daily=RES2_27,status=variable
new load.3002120025M1 bus1=RML1053835448.1.2.3.0,Phases=3,kv=0.22,kW=0.9528,pf=0.92,Vminpu=0.92,Vmaxpu=1.5,model=8,zipv=[0.5,0,0.5,1,0,0,0],daily=RES4_19,status=variable
new load.3002120026M1 bus1=RML1053835483.2.3.0,Phases=2,kv=0.22,kW=0.70204,pf=0.92,Vminpu=0.92,Vmaxpu=1.5,model=8,zipv=[0.5,0,0.5,1,0,0,0],daily=RES3_19,status=variable
new load.3002120027M1 bus1=RML1053835462.1.2.3.0,Phases=3,kv=0.22,kW=0.67628,pf=0.92,Vminpu=0.92,Vmaxpu=1.5,model=8,zipv=[0.5,0,0.5,1,0,0,0],daily=RES3_19,status=variable
new load.3002120029M1 bus1=RML1053835588.2.3.0,Phases=2,kv=0.22,kW=0.47984,pf=0.92,Vminpu=0.92,Vmaxpu=1.5,model=8,zipv=[0.5,0,0.5,1,0,0,0],daily=RES3_19,status=variable
new load.3002120030M1 bus1=RML1053835497.1.3.0,Phases=2,kv=0.22,kW=0.31754,pf=0.92,Vminpu=0.92,Vmaxpu=1.5,model=8,zipv=[0.5,0,0.5,1,0,0,0],daily=RES2_27,status=variable
new load.3002120031M1 bus1=RML1053835504.1.3.0,Phases=2,kv=0.22,kW=0.82442,pf=0.92,Vminpu=0.92,Vmaxpu=1.5,model=8,zipv=[0.5,0,0.5,1,0,0,0],daily=RES3_19,status=variable
new load.3002120032M1 bus1=RML1053728572.3.0,Phases=1,kv=0.127,kW=0.39632,pf=0.92,Vminpu=0.92,Vmaxpu=1.5,model=8,zipv=[0.5,0,0.5,1,0,0,0],daily=RES2_27,status=variable
new load.3002120033M1 bus1=RML1053728481.1.2.3.0,Phases=3,kv=0.22,kW=0.1528,pf=0.92,Vminpu=0.92,Vmaxpu=1.5,model=8,zipv=[0.5,0,0.5,1,0,0,0],daily=RES2_27,status=variable
new load.3002120037M1 bus1=RML1053728509.1.2.3.0,Phases=3,kv=0.22,kW=0.06208,pf=0.92,Vminpu=0.92,Vmaxpu=1.5,model=8,zipv=[0.5,0,0.5,1,0,0,0],daily=RES2_27,status=variable
new load.3002120038M1 bus1=RML1053728488.2.3.0,Phases=2,kv=0.22,kW=0.24592,pf=0.92,Vminpu=0.92,Vmaxpu=1.5,model=8,zipv=[0.5,0,0.5,1,0,0,0],daily=RES2_27,status=variable
new load.3002120039M1 bus1=RML1053728607.1.2.3.0,Phases=3,kv=0.22,kW=1.74496,pf=0.92,Vminpu=0.92,Vmaxpu=1.5,model=8,zipv=[0.5,0,0.5,1,0,0,0],daily=RES4_19,status=variable
new load.3002120040M1 bus1=RML1053728607.1.2.3.0,Phases=3,kv=0.22,kW=0.7278,pf=0.92,Vminpu=0.92,Vmaxpu=1.5,model=8,zipv=[0.5,0,0.5,1,0,0,0],daily=RES3_19,status=variable
new load.3002120041M1 bus1=RML1053728495.1.2.0,Phases=2,kv=0.22,kW=0.789,pf=0.92,Vminpu=0.92,Vmaxpu=1.5,model=8,zipv=[0.5,0,0.5,1,0,0,0],daily=RES3_19,status=variable
new load.3002120042M1 bus1=RML1054527958.3.0,Phases=1,kv=0.127,kW=0.34858,pf=0.92,Vminpu=0.92,Vmaxpu=1.5,model=8,zipv=[0.5,0,0.5,1,0,0,0],daily=RES2_27,status=variable
new load.3002120043M1 bus1=RML1054528000.1.0,Phases=1,kv=0.127,kW=1.05866,pf=0.92,Vminpu=0.92,Vmaxpu=1.5,model=8,zipv=[0.5,0,0.5,1,0,0,0],daily=RES4_19,status=variable
new load.3002120045M1 bus1=RML1054527993.1.2.3.0,Phases=3,kv=0.22,kW=0.50142,pf=0.92,Vminpu=0.92,Vmaxpu=1.5,model=8,zipv=[0.5,0,0.5,1,0,0,0],daily=RES1_23,status=variable
new load.3002120046M1 bus1=RML1054527965.2.0,Phases=1,kv=0.127,kW=0.51848,pf=0.92,Vminpu=0.92,Vmaxpu=1.5,model=8,zipv=[0.5,0,0.5,1,0,0,0],daily=RES3_19,status=variable
new load.3002120047M1 bus1=RML1054527979.1.2.3.0,Phases=3,kv=0.22,kW=1.58798,pf=0.92,Vminpu=0.92,Vmaxpu=1.5,model=8,zipv=[0.5,0,0.5,1,0,0,0],daily=RES4_19,status=variable
new load.3002120048M1 bus1=RML1054528098.1.0,Phases=1,kv=0.127,kW=0.16714,pf=0.92,Vminpu=0.92,Vmaxpu=1.5,model=8,zipv=[0.5,0,0.5,1,0,0,0],daily=RES1_23,status=variable
new load.3002120049M1 bus1=RML1054528161.1.2.3.0,Phases=3,kv=0.22,kW=0.26262,pf=0.92,Vminpu=0.92,Vmaxpu=1.5,model=8,zipv=[0.5,0,0.5,1,0,0,0],daily=RES2_27,status=variable
new load.3002120050M1 bus1=RML1054528161.1.2.3.0,Phases=3,kv=0.22,kW=1.3142,pf=0.92,Vminpu=0.92,Vmaxpu=1.5,model=8,zipv=[0.5,0,0.5,1,0,0,0],daily=RES4_19,status=variable
new load.3002120051M1 bus1=RML1054528175.1.2.3.0,Phases=3,kv=0.22,kW=0.09,pf=0.92,Vminpu=0.92,Vmaxpu=1.5,model=8,zipv=[0.5,0,0.5,1,0,0,0],daily=RES1_23,status=variable
new load.3002120053M1 bus1=RML1054528168.1.2.3.0,Phases=3,kv=0.22,kW=0.29306,pf=0.92,Vminpu=0.92,Vmaxpu=1.5,model=8,zipv=[0.5,0,0.5,1,0,0,0],daily=RES3_19,status=variable
new load.3002120054M1 bus1=RML1054528189.1.2.3.0,Phases=3,kv=0.22,kW=0.78578,pf=0.92,Vminpu=0.92,Vmaxpu=1.5,model=8,zipv=[0.5,0,0.5,1,0,0,0],daily=RES3_19,status=variable
new load.3002120055M1 bus1=RML1054528042.1.0,Phases=1,kv=0.127,kW=0.16234,pf=0.92,Vminpu=0.92,Vmaxpu=1.5,model=8,zipv=[0.5,0,0.5,1,0,0,0],daily=RES2_27,status=variable
new load.3002120056M1 bus1=RML1054528021.3.0,Phases=1,kv=0.127,kW=0.1528,pf=0.92,Vminpu=0.92,Vmaxpu=1.5,model=8,zipv=[0.5,0,0.5,1,0,0,0],daily=RES2_27,status=variable
new load.3002120057M1 bus1=RML1054528035.2.3.0,Phases=2,kv=0.22,kW=0.2061,pf=0.92,Vminpu=0.92,Vmaxpu=1.5,model=8,zipv=[0.5,0,0.5,1,0,0,0],daily=RES3_19,status=variable
new load.3002120058M1 bus1=RML1054528126.1.2.0,Phases=2,kv=0.22,kW=0.24352,pf=0.92,Vminpu=0.92,Vmaxpu=1.5,model=8,zipv=[0.5,0,0.5,1,0,0,0],daily=RES2_27,status=variable
new load.3002120063M1 bus1=RML1054528014.2.3.0,Phases=2,kv=0.22,kW=0.54746,pf=0.92,Vminpu=0.92,Vmaxpu=1.5,model=8,zipv=[0.5,0,0.5,1,0,0,0],daily=RES3_19,status=variable
new load.3002120064M1 bus1=RML1054528147.1.2.0,Phases=2,kv=0.22,kW=0.25546,pf=0.92,Vminpu=0.92,Vmaxpu=1.5,model=8,zipv=[0.5,0,0.5,1,0,0,0],daily=RES2_27,status=variable
new load.3002120065M1 bus1=RML1053728502.2.3.0,Phases=2,kv=0.22,kW=0.23158,pf=0.92,Vminpu=0.92,Vmaxpu=1.5,model=8,zipv=[0.5,0,0.5,1,0,0,0],daily=RES2_27,status=variable
new load.3002120066M1 bus1=RML1053728593.1.2.0,Phases=2,kv=0.22,kW=0.23142,pf=0.92,Vminpu=0.92,Vmaxpu=1.5,model=8,zipv=[0.5,0,0.5,1,0,0,0],daily=RES1_23,status=variable
new load.3002120067M1 bus1=RML1053728593.1.2.0,Phases=2,kv=0.22,kW=0.31754,pf=0.92,Vminpu=0.92,Vmaxpu=1.5,model=8,zipv=[0.5,0,0.5,1,0,0,0],daily=RES2_27,status=variable
new load.3002120071M1 bus1=RML1056426701.2.3.0,Phases=2,kv=0.22,kW=0.3629,pf=0.92,Vminpu=0.92,Vmaxpu=1.5,model=8,zipv=[0.5,0,0.5,1,0,0,0],daily=RES2_27,status=variable
new load.3002120075M1 bus1=RML1053846543.1.2.3.0,Phases=3,kv=0.22,kW=0.73012,pf=0.92,Vminpu=0.92,Vmaxpu=1.5,model=8,zipv=[0.5,0,0.5,1,0,0,0],daily=RES4_19,status=variable
new load.3002120076M1 bus1=RML1053801757.1.3.0,Phases=2,kv=0.22,kW=0.31514,pf=0.92,Vminpu=0.92,Vmaxpu=1.5,model=8,zipv=[0.5,0,0.5,1,0,0,0],daily=RES2_27,status=variable
new load.3002120078M1 bus1=RML1053801806.1.2.3.0,Phases=3,kv=0.22,kW=0.4757,pf=0.92,Vminpu=0.92,Vmaxpu=1.5,model=8,zipv=[0.5,0,0.5,1,0,0,0],daily=RES1_23,status=variable
new load.3002120079M1 bus1=RML1053801799.1.2.3.0,Phases=3,kv=0.22,kW=0.26502,pf=0.92,Vminpu=0.92,Vmaxpu=1.5,model=8,zipv=[0.5,0,0.5,1,0,0,0],daily=RES2_27,status=variable
new load.3002120105M1 bus1=RML1053728390.1.2.0,Phases=2,kv=0.22,kW=0.37484,pf=0.92,Vminpu=0.92,Vmaxpu=1.5,model=8,zipv=[0.5,0,0.5,1,0,0,0],daily=RES2_27,status=variable
new load.3002120153M1 bus1=RML1053728558.1.2.3.0,Phases=3,kv=0.22,kW=1.23024,pf=0.92,Vminpu=0.92,Vmaxpu=1.5,model=8,zipv=[0.5,0,0.5,1,0,0,0],daily=RES4_19,status=variable
new load.3002120154M1 bus1=RML1054528140.1.2.3.0,Phases=3,kv=0.22,kW=0.35334,pf=0.92,Vminpu=0.92,Vmaxpu=1.5,model=8,zipv=[0.5,0,0.5,1,0,0,0],daily=RES2_27,status=variable
new load.3002120155M1 bus1=RML1053835525.1.2.3.0,Phases=3,kv=0.22,kW=0.7568,pf=0.92,Vminpu=0.92,Vmaxpu=1.5,model=8,zipv=[0.5,0,0.5,1,0,0,0],daily=RES3_19,status=variable
new load.3002120175M1 bus1=RML1054553956.1.2.0,Phases=2,kv=0.22,kW=0.5217,pf=0.92,Vminpu=0.92,Vmaxpu=1.5,model=8,zipv=[0.5,0,0.5,1,0,0,0],daily=RES3_19,status=variable
new load.3002120176M1 bus1=RML1054553956.1.2.0,Phases=2,kv=0.22,kW=0.00642,pf=0.92,Vminpu=0.92,Vmaxpu=1.5,model=8,zipv=[0.5,0,0.5,1,0,0,0],daily=RES1_23,status=variable
new load.3002120177M1 bus1=RML1054553963.1.2.0,Phases=2,kv=0.22,kW=0.16234,pf=0.92,Vminpu=0.92,Vmaxpu=1.5,model=8,zipv=[0.5,0,0.5,1,0,0,0],daily=RES2_27,status=variable
new load.3002120178M1 bus1=RML1054553963.1.2.0,Phases=2,kv=0.22,kW=0.13132,pf=0.92,Vminpu=0.92,Vmaxpu=1.5,model=8,zipv=[0.5,0,0.5,1,0,0,0],daily=RES2_27,status=variable
new load.3002120180M1 bus1=RML1054553949.2.0,Phases=1,kv=0.127,kW=0.56678,pf=0.92,Vminpu=0.92,Vmaxpu=1.5,model=8,zipv=[0.5,0,0.5,1,0,0,0],daily=RES3_19,status=variable
new load.3002120210M1 bus1=RML1054553627.1.0,Phases=1,kv=0.127,kW=0.53458,pf=0.92,Vminpu=0.92,Vmaxpu=1.5,model=8,zipv=[0.5,0,0.5,1,0,0,0],daily=RES3_19,status=variable
new load.3002122656M1 bus1=RML1053728439.1.2.0,Phases=2,kv=0.22,kW=0.30322,pf=0.92,Vminpu=0.92,Vmaxpu=1.5,model=8,zipv=[0.5,0,0.5,1,0,0,0],daily=RES2_27,status=variable
new load.3002122789M1 bus1=RML1053846578.1.2.0,Phases=2,kv=0.22,kW=0.70204,pf=0.92,Vminpu=0.92,Vmaxpu=1.5,model=8,zipv=[0.5,0,0.5,1,0,0,0],daily=RES3_19,status=variable
new load.3002122826M1 bus1=RML1053846571.2.3.0,Phases=2,kv=0.22,kW=0.64086,pf=0.92,Vminpu=0.92,Vmaxpu=1.5,model=8,zipv=[0.5,0,0.5,1,0,0,0],daily=RES3_19,status=variable
new load.3002122827M1 bus1=RML1053846599.1.3.0,Phases=2,kv=0.22,kW=0.27934,pf=0.92,Vminpu=0.92,Vmaxpu=1.5,model=8,zipv=[0.5,0,0.5,1,0,0,0],daily=RES2_27,status=variable
new load.3002122836M1 bus1=RML1054544604.1.0,Phases=1,kv=0.127,kW=0.31754,pf=0.92,Vminpu=0.92,Vmaxpu=1.5,model=8,zipv=[0.5,0,0.5,1,0,0,0],daily=RES2_27,status=variable
new load.3002122837M1 bus1=RML1054493238.3.0,Phases=1,kv=0.127,kW=0.27456,pf=0.92,Vminpu=0.92,Vmaxpu=1.5,model=8,zipv=[0.5,0,0.5,1,0,0,0],daily=RES2_27,status=variable
new load.3002122838M1 bus1=RML1054493504.1.2.0,Phases=2,kv=0.22,kW=0.19338,pf=0.92,Vminpu=0.92,Vmaxpu=1.5,model=8,zipv=[0.5,0,0.5,1,0,0,0],daily=RES2_27,status=variable
new load.3002122839M1 bus1=RML1054493490.1.2.3.0,Phases=3,kv=0.22,kW=0.40826,pf=0.92,Vminpu=0.92,Vmaxpu=1.5,model=8,zipv=[0.5,0,0.5,1,0,0,0],daily=RES2_27,status=variable
new load.3002122840M1 bus1=RML1054493476.1.3.0,Phases=2,kv=0.22,kW=0.30798,pf=0.92,Vminpu=0.92,Vmaxpu=1.5,model=8,zipv=[0.5,0,0.5,1,0,0,0],daily=RES2_27,status=variable
new load.3002122841M1 bus1=RML1054569615.2.3.0,Phases=2,kv=0.22,kW=0.9959,pf=0.92,Vminpu=0.92,Vmaxpu=1.5,model=8,zipv=[0.5,0,0.5,1,0,0,0],daily=COM1_25,status=variable
new load.3002122842M1 bus1=RML1054493469.1.2.3.0,Phases=3,kv=0.22,kW=0.52712,pf=0.92,Vminpu=0.92,Vmaxpu=1.5,model=8,zipv=[0.5,0,0.5,1,0,0,0],daily=RES1_23,status=variable
new load.3002122844M1 bus1=RML1054493343.1.2.0,Phases=2,kv=0.22,kW=0.54424,pf=0.92,Vminpu=0.92,Vmaxpu=1.5,model=8,zipv=[0.5,0,0.5,1,0,0,0],daily=RES3_19,status=variable
new load.3002122845M1 bus1=RML1054493427.1.2.3.0,Phases=3,kv=0.22,kW=0.35102,pf=0.92,Vminpu=0.92,Vmaxpu=1.5,model=8,zipv=[0.5,0,0.5,1,0,0,0],daily=RES3_19,status=variable
new load.3002122846M1 bus1=RML1053801946.1.2.3.0,Phases=3,kv=0.22,kW=0.33186,pf=0.92,Vminpu=0.92,Vmaxpu=1.5,model=8,zipv=[0.5,0,0.5,1,0,0,0],daily=RES2_27,status=variable
new load.3002122848M1 bus1=RML1053801946.1.2.3.0,Phases=3,kv=0.22,kW=0.38678,pf=0.92,Vminpu=0.92,Vmaxpu=1.5,model=8,zipv=[0.5,0,0.5,1,0,0,0],daily=RES2_27,status=variable
new load.3002122849M1 bus1=RML1054493329.1.3.0,Phases=2,kv=0.22,kW=0.2995,pf=0.92,Vminpu=0.92,Vmaxpu=1.5,model=8,zipv=[0.5,0,0.5,1,0,0,0],daily=RES3_19,status=variable
new load.3002122851M1 bus1=RML1053812754.1.2.0,Phases=2,kv=0.22,kW=1.0927,pf=0.92,Vminpu=0.92,Vmaxpu=1.5,model=8,zipv=[0.5,0,0.5,1,0,0,0],daily=RES5_20,status=variable
new load.3002122852M1 bus1=RML1054493406.1.0,Phases=1,kv=0.127,kW=0.59578,pf=0.92,Vminpu=0.92,Vmaxpu=1.5,model=8,zipv=[0.5,0,0.5,1,0,0,0],daily=RES3_19,status=variable
new load.3002122853M1 bus1=RML1054493462.1.2.3.0,Phases=3,kv=0.22,kW=0.60222,pf=0.92,Vminpu=0.92,Vmaxpu=1.5,model=8,zipv=[0.5,0,0.5,1,0,0,0],daily=RES3_19,status=variable
new load.3002122855M1 bus1=RML1054493245.1.3.0,Phases=2,kv=0.22,kW=0.18622,pf=0.92,Vminpu=0.92,Vmaxpu=1.5,model=8,zipv=[0.5,0,0.5,1,0,0,0],daily=RES2_27,status=variable
new load.3002122857M1 bus1=RML1054493280.2.3.0,Phases=2,kv=0.22,kW=0.10306,pf=0.92,Vminpu=0.92,Vmaxpu=1.5,model=8,zipv=[0.5,0,0.5,1,0,0,0],daily=RES3_19,status=variable
new load.3002122858M1 bus1=RML1054493294.1.2.3.0,Phases=3,kv=0.22,kW=0.37284,pf=0.92,Vminpu=0.92,Vmaxpu=1.5,model=8,zipv=[0.5,0,0.5,1,0,0,0],daily=RES1_23,status=variable
new load.3002122859M1 bus1=RML1054493301.2.3.0,Phases=2,kv=0.22,kW=0.57002,pf=0.92,Vminpu=0.92,Vmaxpu=1.5,model=8,zipv=[0.5,0,0.5,1,0,0,0],daily=RES3_19,status=variable
new load.3002122860M1 bus1=RML1054493357.1.3.0,Phases=2,kv=0.22,kW=0.81908,pf=0.92,Vminpu=0.92,Vmaxpu=1.5,model=8,zipv=[0.5,0,0.5,1,0,0,0],daily=RES5_20,status=variable
new load.3002122861M1 bus1=RML1054548328.2.3.0,Phases=2,kv=0.22,kW=0.24002,pf=0.92,Vminpu=0.92,Vmaxpu=1.5,model=8,zipv=[0.5,0,0.5,1,0,0,0],daily=COM1_25,status=variable
new load.3002122863M1 bus1=RML1053812768.1.2.0,Phases=2,kv=0.22,kW=0.87248,pf=0.92,Vminpu=0.92,Vmaxpu=1.5,model=8,zipv=[0.5,0,0.5,1,0,0,0],daily=RES4_19,status=variable
new load.3002122865M1 bus1=RML1053812894.1.2.3.0,Phases=3,kv=0.22,kW=0.37006,pf=0.92,Vminpu=0.92,Vmaxpu=1.5,model=8,zipv=[0.5,0,0.5,1,0,0,0],daily=RES2_27,status=variable
new load.3002122866M1 bus1=RML1053812908.1.3.0,Phases=2,kv=0.22,kW=1.20468,pf=0.92,Vminpu=0.92,Vmaxpu=1.5,model=8,zipv=[0.5,0,0.5,1,0,0,0],daily=RES4_19,status=variable
new load.3002122867M1 bus1=RML1053812908.1.3.0,Phases=2,kv=0.22,kW=0.35334,pf=0.92,Vminpu=0.92,Vmaxpu=1.5,model=8,zipv=[0.5,0,0.5,1,0,0,0],daily=RES2_27,status=variable
new load.3002122868M1 bus1=RML1053812740.1.2.0,Phases=2,kv=0.22,kW=0.18384,pf=0.92,Vminpu=0.92,Vmaxpu=1.5,model=8,zipv=[0.5,0,0.5,1,0,0,0],daily=RES2_27,status=variable
new load.3002122869M1 bus1=RML1053812852.1.0,Phases=1,kv=0.127,kW=0.4307,pf=0.92,Vminpu=0.92,Vmaxpu=1.5,model=8,zipv=[0.5,0,0.5,1,0,0,0],daily=RES1_23,status=variable
new load.3002122870M1 bus1=RML1053812957.1.2.0,Phases=2,kv=0.22,kW=0.2674,pf=0.92,Vminpu=0.92,Vmaxpu=1.5,model=8,zipv=[0.5,0,0.5,1,0,0,0],daily=RES2_27,status=variable
new load.3002122871M1 bus1=RML1053812733.2.0,Phases=1,kv=0.127,kW=0.23636,pf=0.92,Vminpu=0.92,Vmaxpu=1.5,model=8,zipv=[0.5,0,0.5,1,0,0,0],daily=RES2_27,status=variable
new load.3002122872M1 bus1=RML1053812747.1.2.3.0,Phases=3,kv=0.22,kW=0.9966,pf=0.92,Vminpu=0.92,Vmaxpu=1.5,model=8,zipv=[0.5,0,0.5,1,0,0,0],daily=RES4_19,status=variable
new load.3002122873M1 bus1=RML1053812761.2.3.0,Phases=2,kv=0.22,kW=1.72558,pf=0.92,Vminpu=0.92,Vmaxpu=1.5,model=8,zipv=[0.5,0,0.5,1,0,0,0],daily=RES6_15,status=variable
new load.3002122875M1 bus1=RML1053812859.1.3.0,Phases=2,kv=0.22,kW=0.4757,pf=0.92,Vminpu=0.92,Vmaxpu=1.5,model=8,zipv=[0.5,0,0.5,1,0,0,0],daily=RES1_23,status=variable
new load.3002122876M1 bus1=RML1053812831.3.0,Phases=1,kv=0.127,kW=0.67306,pf=0.92,Vminpu=0.92,Vmaxpu=1.5,model=8,zipv=[0.5,0,0.5,1,0,0,0],daily=RES3_19,status=variable
new load.3002122877M1 bus1=RML1053812915.1.2.3.0,Phases=3,kv=0.22,kW=0.17356,pf=0.92,Vminpu=0.92,Vmaxpu=1.5,model=8,zipv=[0.5,0,0.5,1,0,0,0],daily=RES1_23,status=variable
new load.3002122878M1 bus1=RML1054548265.2.0,Phases=1,kv=0.127,kW=0.53136,pf=0.92,Vminpu=0.92,Vmaxpu=1.5,model=8,zipv=[0.5,0,0.5,1,0,0,0],daily=RES3_19,status=variable
new load.3002122879M1 bus1=RML1054548608.1.2.0,Phases=2,kv=0.22,kW=0.79544,pf=0.92,Vminpu=0.92,Vmaxpu=1.5,model=8,zipv=[0.5,0,0.5,1,0,0,0],daily=RES3_19,status=variable
new load.3002122880M1 bus1=RML1054548594.2.0,Phases=1,kv=0.127,kW=0.303,pf=0.92,Vminpu=0.92,Vmaxpu=1.5,model=8,zipv=[0.5,0,0.5,1,0,0,0],daily=RES4_19,status=variable
new load.3002122881M1 bus1=RML1053801876.1.3.0,Phases=2,kv=0.22,kW=0.21248,pf=0.92,Vminpu=0.92,Vmaxpu=1.5,model=8,zipv=[0.5,0,0.5,1,0,0,0],daily=RES2_27,status=variable
new load.3002122882M1 bus1=RML1053801827.1.2.0,Phases=2,kv=0.22,kW=0.03858,pf=0.92,Vminpu=0.92,Vmaxpu=1.5,model=8,zipv=[0.5,0,0.5,1,0,0,0],daily=RES1_23,status=variable
new load.3002122883M1 bus1=RML1053801834.2.3.0,Phases=2,kv=0.22,kW=1.14992,pf=0.92,Vminpu=0.92,Vmaxpu=1.5,model=8,zipv=[0.5,0,0.5,1,0,0,0],daily=RES4_19,status=variable
new load.3002122884M1 bus1=RML1053801841.1.2.0,Phases=2,kv=0.22,kW=0.42974,pf=0.92,Vminpu=0.92,Vmaxpu=1.5,model=8,zipv=[0.5,0,0.5,1,0,0,0],daily=RES2_27,status=variable
new load.3002122886M1 bus1=RML1053801869.2.0,Phases=1,kv=0.127,kW=1.16818,pf=0.92,Vminpu=0.92,Vmaxpu=1.5,model=8,zipv=[0.5,0,0.5,1,0,0,0],daily=RES4_19,status=variable
new load.3002122888M1 bus1=RML1054548615.1.2.3.0,Phases=3,kv=0.22,kW=0.92192,pf=0.92,Vminpu=0.92,Vmaxpu=1.5,model=8,zipv=[0.5,0,0.5,1,0,0,0],daily=RES5_20,status=variable
new load.3002122889M1 bus1=RML1054548587.1.2.0,Phases=2,kv=0.22,kW=0.38016,pf=0.92,Vminpu=0.92,Vmaxpu=1.5,model=8,zipv=[0.5,0,0.5,1,0,0,0],daily=RES5_20,status=variable
new load.3002122890M1 bus1=RML1054548279.1.2.0,Phases=2,kv=0.22,kW=0.12892,pf=0.92,Vminpu=0.92,Vmaxpu=1.5,model=8,zipv=[0.5,0,0.5,1,0,0,0],daily=RES2_27,status=variable
new load.3002122891M1 bus1=RML1054548559.1.2.0,Phases=2,kv=0.22,kW=0.49916,pf=0.92,Vminpu=0.92,Vmaxpu=1.5,model=8,zipv=[0.5,0,0.5,1,0,0,0],daily=RES3_19,status=variable
new load.3002122893M1 bus1=RML1054548419.1.2.0,Phases=2,kv=0.22,kW=1.15358,pf=0.92,Vminpu=0.92,Vmaxpu=1.5,model=8,zipv=[0.5,0,0.5,1,0,0,0],daily=RES4_19,status=variable
new load.3002122894M1 bus1=RML1054598126.1.2.0,Phases=2,kv=0.22,kW=0.393,pf=0.92,Vminpu=0.92,Vmaxpu=1.5,model=8,zipv=[0.5,0,0.5,1,0,0,0],daily=RES5_20,status=variable
new load.3002122897M1 bus1=RML1054548468.1.2.0,Phases=2,kv=0.22,kW=0.84374,pf=0.92,Vminpu=0.92,Vmaxpu=1.5,model=8,zipv=[0.5,0,0.5,1,0,0,0],daily=RES3_19,status=variable
new load.3002122898M1 bus1=RML1053813020.1.2.0,Phases=2,kv=0.22,kW=0.2292,pf=0.92,Vminpu=0.92,Vmaxpu=1.5,model=8,zipv=[0.5,0,0.5,1,0,0,0],daily=RES2_27,status=variable
new load.3002122899M1 bus1=RML1053801596.1.2.0,Phases=2,kv=0.22,kW=0.80678,pf=0.92,Vminpu=0.92,Vmaxpu=1.5,model=8,zipv=[0.5,0,0.5,1,0,0,0],daily=RES4_19,status=variable
new load.3002122901M1 bus1=RML1053801659.1.2.0,Phases=2,kv=0.22,kW=0.04774,pf=0.92,Vminpu=0.92,Vmaxpu=1.5,model=8,zipv=[0.5,0,0.5,1,0,0,0],daily=RES2_27,status=variable
new load.3002122902M1 bus1=RML1053801575.1.2.3.0,Phases=3,kv=0.22,kW=0.20054,pf=0.92,Vminpu=0.92,Vmaxpu=1.5,model=8,zipv=[0.5,0,0.5,1,0,0,0],daily=RES2_27,status=variable
new load.3002122903M1 bus1=RML1053801589.2.0,Phases=1,kv=0.127,kW=0.32708,pf=0.92,Vminpu=0.92,Vmaxpu=1.5,model=8,zipv=[0.5,0,0.5,1,0,0,0],daily=RES2_27,status=variable
new load.3002122909M1 bus1=RML1053801610.1.2.0,Phases=2,kv=0.22,kW=0.6473,pf=0.92,Vminpu=0.92,Vmaxpu=1.5,model=8,zipv=[0.5,0,0.5,1,0,0,0],daily=RES3_19,status=variable
new load.3002122913M1 bus1=RML1053801645.1.2.0,Phases=2,kv=0.22,kW=0.73426,pf=0.92,Vminpu=0.92,Vmaxpu=1.5,model=8,zipv=[0.5,0,0.5,1,0,0,0],daily=RES3_19,status=variable
new load.3002122914M1 bus1=RML1053801582.1.3.0,Phases=2,kv=0.22,kW=0.05786,pf=0.92,Vminpu=0.92,Vmaxpu=1.5,model=8,zipv=[0.5,0,0.5,1,0,0,0],daily=RES1_23,status=variable
new load.3002122916M1 bus1=RML1054548412.2.3.0,Phases=2,kv=0.22,kW=0.18144,pf=0.92,Vminpu=0.92,Vmaxpu=1.5,model=8,zipv=[0.5,0,0.5,1,0,0,0],daily=RES2_27,status=variable
new load.3002122917M1 bus1=RML1054478965.1.0,Phases=1,kv=0.127,kW=0.40576,pf=0.92,Vminpu=0.92,Vmaxpu=1.5,model=8,zipv=[0.5,0,0.5,1,0,0,0],daily=RES3_19,status=variable
new load.3002122918M1 bus1=RML1054548426.3.0,Phases=1,kv=0.127,kW=0.23874,pf=0.92,Vminpu=0.92,Vmaxpu=1.5,model=8,zipv=[0.5,0,0.5,1,0,0,0],daily=RES2_27,status=variable
new load.3002299275M1 bus1=RML1053067632.1.2.0,Phases=2,kv=0.22,kW=4.31436,pf=0.92,Vminpu=0.92,Vmaxpu=1.5,model=8,zipv=[0.5,0,0.5,1,0,0,0],daily=RES4_4,status=variable
new load.3002299276M1 bus1=RML1053018555.1.2.0,Phases=2,kv=0.22,kW=0.75132,pf=0.92,Vminpu=0.92,Vmaxpu=1.5,model=8,zipv=[0.5,0,0.5,1,0,0,0],daily=RES3_2,status=variable
new load.3002299277M1 bus1=RML1053018548.1.2.3.0,Phases=3,kv=0.22,kW=1.77658,pf=0.92,Vminpu=0.92,Vmaxpu=1.5,model=8,zipv=[0.5,0,0.5,1,0,0,0],daily=RES3_2,status=variable
new load.3002299279M1 bus1=RML1053018506.1.2.0,Phases=2,kv=0.22,kW=2.0974,pf=0.92,Vminpu=0.92,Vmaxpu=1.5,model=8,zipv=[0.5,0,0.5,1,0,0,0],daily=RES5_4,status=variable
new load.3002299280M1 bus1=RML1053018513.1.2.0,Phases=2,kv=0.22,kW=0.31306,pf=0.92,Vminpu=0.92,Vmaxpu=1.5,model=8,zipv=[0.5,0,0.5,1,0,0,0],daily=RES3_2,status=variable
new load.3002299284M1 bus1=RML1053028719.1.2.3.0,Phases=3,kv=0.22,kW=1.29786,pf=0.92,Vminpu=0.92,Vmaxpu=1.5,model=8,zipv=[0.5,0,0.5,1,0,0,0],daily=RUR2_2,status=variable
new load.3002299285M1 bus1=RML1053028614.1.2.0,Phases=2,kv=0.24,kW=0.2553,pf=0.92,Vminpu=0.92,Vmaxpu=1.5,model=8,zipv=[0.5,0,0.5,1,0,0,0],daily=RES1_2,status=variable
new load.3002299286M1 bus1=RML1053019038.1.2.0,Phases=2,kv=0.24,kW=0.6227,pf=0.92,Vminpu=0.92,Vmaxpu=1.5,model=8,zipv=[0.5,0,0.5,1,0,0,0],daily=RES2_2,status=variable
new load.3002299288M1 bus1=RML1053018996.1.2.0,Phases=2,kv=0.24,kW=2.79654,pf=0.92,Vminpu=0.92,Vmaxpu=1.5,model=8,zipv=[0.5,0,0.5,1,0,0,0],daily=RES5_4,status=variable
new load.3002299289M1 bus1=RML1053019003.1.2.0,Phases=2,kv=0.24,kW=0.31422,pf=0.92,Vminpu=0.92,Vmaxpu=1.5,model=8,zipv=[0.5,0,0.5,1,0,0,0],daily=RES1_2,status=variable
new load.3002299290M1 bus1=RML1053019087.1.2.0,Phases=2,kv=0.24,kW=1.5496,pf=0.92,Vminpu=0.92,Vmaxpu=1.5,model=8,zipv=[0.5,0,0.5,1,0,0,0],daily=RES3_2,status=variable
new load.3002299291M1 bus1=RML1053019080.1.2.0,Phases=2,kv=0.24,kW=0.75152,pf=0.92,Vminpu=0.92,Vmaxpu=1.5,model=8,zipv=[0.5,0,0.5,1,0,0,0],daily=RES2_2,status=variable
new load.3002299293M1 bus1=RML1053018681.1.2.3.0,Phases=3,kv=0.22,kW=2.94484,pf=0.92,Vminpu=0.92,Vmaxpu=1.5,model=8,zipv=[0.5,0,0.5,1,0,0,0],daily=RES5_4,status=variable
new load.3002299296M1 bus1=RML1053019031.1.2.0,Phases=2,kv=0.22,kW=1.53396,pf=0.92,Vminpu=0.92,Vmaxpu=1.5,model=8,zipv=[0.5,0,0.5,1,0,0,0],daily=RES3_2,status=variable
new load.3002299297M1 bus1=RML1053019017.1.2.0,Phases=2,kv=0.24,kW=2.20702,pf=0.92,Vminpu=0.92,Vmaxpu=1.5,model=8,zipv=[0.5,0,0.5,1,0,0,0],daily=RES3_2,status=variable
new load.3002299299M1 bus1=RML1053027536.1.2.3.0,Phases=3,kv=0.22,kW=1.47134,pf=0.92,Vminpu=0.92,Vmaxpu=1.5,model=8,zipv=[0.5,0,0.5,1,0,0,0],daily=RES3_2,status=variable
new load.3002299300M1 bus1=RML1053027592.1.2.3.0,Phases=3,kv=0.22,kW=0.57974,pf=0.92,Vminpu=0.92,Vmaxpu=1.5,model=8,zipv=[0.5,0,0.5,1,0,0,0],daily=RES2_2,status=variable
new load.3002299301M1 bus1=RML1053027585.1.2.0,Phases=2,kv=0.22,kW=1.68266,pf=0.92,Vminpu=0.92,Vmaxpu=1.5,model=8,zipv=[0.5,0,0.5,1,0,0,0],daily=RES3_2,status=variable
new load.3002299302M1 bus1=RML1053027578.1.2.0,Phases=2,kv=0.22,kW=1.00918,pf=0.92,Vminpu=0.92,Vmaxpu=1.5,model=8,zipv=[0.5,0,0.5,1,0,0,0],daily=RES2_2,status=variable
new load.3002299303M1 bus1=RML1053027571.1.2.0,Phases=2,kv=0.22,kW=1.52704,pf=0.92,Vminpu=0.92,Vmaxpu=1.5,model=8,zipv=[0.5,0,0.5,1,0,0,0],daily=RES4_4,status=variable
new load.3002299304M1 bus1=RML1053027564.1.2.0,Phases=2,kv=0.22,kW=1.87496,pf=0.92,Vminpu=0.92,Vmaxpu=1.5,model=8,zipv=[0.5,0,0.5,1,0,0,0],daily=RES5_4,status=variable
new load.3002299305M1 bus1=RML1053027564.1.2.0,Phases=2,kv=0.22,kW=2.06562,pf=0.92,Vminpu=0.92,Vmaxpu=1.5,model=8,zipv=[0.5,0,0.5,1,0,0,0],daily=RES5_4,status=variable
new load.3002299306M1 bus1=RML1053027550.1.2.3.0,Phases=3,kv=0.22,kW=2.96602,pf=0.92,Vminpu=0.92,Vmaxpu=1.5,model=8,zipv=[0.5,0,0.5,1,0,0,0],daily=RES5_4,status=variable
new load.3002299308M1 bus1=RML1053028810.1.2.3.0,Phases=3,kv=0.22,kW=1.0119,pf=0.92,Vminpu=0.92,Vmaxpu=1.5,model=8,zipv=[0.5,0,0.5,1,0,0,0],daily=RES4_4,status=variable
new load.3002299309M1 bus1=RML1053028761.1.2.3.0,Phases=3,kv=0.22,kW=0.34368,pf=0.92,Vminpu=0.92,Vmaxpu=1.5,model=8,zipv=[0.5,0,0.5,1,0,0,0],daily=RES1_2,status=variable
new load.3002299310M1 bus1=RML1053028775.1.2.3.0,Phases=3,kv=0.22,kW=0.83742,pf=0.92,Vminpu=0.92,Vmaxpu=1.5,model=8,zipv=[0.5,0,0.5,1,0,0,0],daily=RES2_2,status=variable
new load.3002299311M1 bus1=RML1053028754.1.2.3.0,Phases=3,kv=0.22,kW=0.02138,pf=0.92,Vminpu=0.92,Vmaxpu=1.5,model=8,zipv=[0.5,0,0.5,1,0,0,0],daily=COM1_4,status=variable
new load.3002299312M1 bus1=RML1053028817.1.2.3.0,Phases=3,kv=0.22,kW=0.80162,pf=0.92,Vminpu=0.92,Vmaxpu=1.5,model=8,zipv=[0.5,0,0.5,1,0,0,0],daily=RES2_2,status=variable
new load.3002299315M1 bus1=RML1053025814.1.2.0,Phases=2,kv=0.22,kW=0.6579,pf=0.92,Vminpu=0.92,Vmaxpu=1.5,model=8,zipv=[0.5,0,0.5,1,0,0,0],daily=RES1_2,status=variable
new load.3002299318M1 bus1=RML1053028712.1.2.3.0,Phases=3,kv=0.22,kW=1.72178,pf=0.92,Vminpu=0.92,Vmaxpu=1.5,model=8,zipv=[0.5,0,0.5,1,0,0,0],daily=RES3_2,status=variable
new load.3002299319M1 bus1=RML1053028705.1.2.3.0,Phases=3,kv=0.22,kW=2.31816,pf=0.92,Vminpu=0.92,Vmaxpu=1.5,model=8,zipv=[0.5,0,0.5,1,0,0,0],daily=RES4_4,status=variable
new load.3002299320M1 bus1=RML1053025835.1.2.3.0,Phases=3,kv=0.22,kW=1.76092,pf=0.92,Vminpu=0.92,Vmaxpu=1.5,model=8,zipv=[0.5,0,0.5,1,0,0,0],daily=RES3_2,status=variable
new load.3002299322M1 bus1=RML1053099146.1.2.3.0,Phases=3,kv=0.22,kW=0.62768,pf=0.92,Vminpu=0.92,Vmaxpu=1.5,model=8,zipv=[0.5,0,0.5,1,0,0,0],daily=COM1_4,status=variable
new load.3002299325M1 bus1=RML1053025842.1.2.3.0,Phases=3,kv=0.22,kW=0.80878,pf=0.92,Vminpu=0.92,Vmaxpu=1.5,model=8,zipv=[0.5,0,0.5,1,0,0,0],daily=RES2_2,status=variable
new load.3002299326M1 bus1=RML1053025863.1.2.3.0,Phases=3,kv=0.22,kW=0.16462,pf=0.92,Vminpu=0.92,Vmaxpu=1.5,model=8,zipv=[0.5,0,0.5,1,0,0,0],daily=RES2_2,status=variable
new load.3002299327M1 bus1=RML1053025821.1.2.3.0,Phases=3,kv=0.22,kW=1.29836,pf=0.92,Vminpu=0.92,Vmaxpu=1.5,model=8,zipv=[0.5,0,0.5,1,0,0,0],daily=IND1_4,status=variable
new load.3002299328M1 bus1=RML1053025828.1.0,Phases=1,kv=0.127,kW=0.88752,pf=0.92,Vminpu=0.92,Vmaxpu=1.5,model=8,zipv=[0.5,0,0.5,1,0,0,0],daily=RES2_2,status=variable
new load.3002299329M1 bus1=RML1053018667.1.2.0,Phases=2,kv=0.22,kW=2.45756,pf=0.92,Vminpu=0.92,Vmaxpu=1.5,model=8,zipv=[0.5,0,0.5,1,0,0,0],daily=RES5_4,status=variable
new load.3002299335M1 bus1=RML1053037196.1.2.0,Phases=2,kv=0.22,kW=0.98772,pf=0.92,Vminpu=0.92,Vmaxpu=1.5,model=8,zipv=[0.5,0,0.5,1,0,0,0],daily=RES2_2,status=variable
new load.3002299336M1 bus1=RML1053037210.1.0,Phases=1,kv=0.127,kW=0.9233,pf=0.92,Vminpu=0.92,Vmaxpu=1.5,model=8,zipv=[0.5,0,0.5,1,0,0,0],daily=RES2_2,status=variable
new load.3002299338M1 bus1=RML1053067646.1.2.0,Phases=2,kv=0.22,kW=2.03484,pf=0.92,Vminpu=0.92,Vmaxpu=1.5,model=8,zipv=[0.5,0,0.5,1,0,0,0],daily=RES3_2,status=variable
new load.3002299339M1 bus1=RML1053067667.1.2.3.0,Phases=3,kv=0.22,kW=0.4615,pf=0.92,Vminpu=0.92,Vmaxpu=1.5,model=8,zipv=[0.5,0,0.5,1,0,0,0],daily=RES1_2,status=variable
new load.3002299341M1 bus1=RML1053095422.1.2.0,Phases=2,kv=0.24,kW=0.48114,pf=0.92,Vminpu=0.92,Vmaxpu=1.5,model=8,zipv=[0.5,0,0.5,1,0,0,0],daily=RES1_2,status=variable
new load.3002299342M1 bus1=RML1053095408.2.0,Phases=1,kv=0.12,kW=0.8732,pf=0.92,Vminpu=0.92,Vmaxpu=1.5,model=8,zipv=[0.5,0,0.5,1,0,0,0],daily=RES2_2,status=variable
new load.3002299343M1 bus1=RML1053067660.1.2.0,Phases=2,kv=0.24,kW=0.48524,pf=0.92,Vminpu=0.92,Vmaxpu=1.5,model=8,zipv=[0.5,0,0.5,1,0,0,0],daily=RES3_2,status=variable
...
